*SPEF "ieee 1481-1999"
*DESIGN "alpha2_3_simple_wb_wrapper"
*DATE "11:30:04 Sunday August 31, 2025"
*VENDOR "The OpenROAD Project"
*PROGRAM "OpenROAD"
*VERSION "edf00dff99f6c40d67a30c0e22a8191c5d2ed9d6"
*DESIGN_FLOW "NAME_SCOPE LOCAL" "PIN_CAP NONE"
*DIVIDER /
*DELIMITER :
*BUS_DELIMITER []
*T_UNIT 1 NS
*C_UNIT 1 PF
*R_UNIT 1 OHM
*L_UNIT 1 HENRY

*NAME_MAP
*3 io_in[0]
*4 io_in[1]
*5 io_in[2]
*6 io_in[3]
*7 io_in[4]
*8 io_in[5]
*9 io_in[6]
*10 io_in[7]
*11 net229
*12 net193
*13 net194
*14 net195
*15 io_oeb[4]
*16 io_oeb[5]
*17 net230
*18 net196
*19 io_out[0]
*20 io_out[1]
*21 io_out[2]
*22 io_out[3]
*23 io_out[4]
*24 io_out[5]
*25 net197
*26 net198
*27 irq[0]
*28 irq[1]
*29 net199
*30 wb_clk_i
*31 wb_rst_i
*32 wbs_ack_o
*33 wbs_adr_i[0]
*34 wbs_adr_i[10]
*35 wbs_adr_i[11]
*36 wbs_adr_i[12]
*37 wbs_adr_i[13]
*38 wbs_adr_i[14]
*39 wbs_adr_i[15]
*40 wbs_adr_i[16]
*41 wbs_adr_i[17]
*42 wbs_adr_i[18]
*43 wbs_adr_i[19]
*44 wbs_adr_i[1]
*45 wbs_adr_i[20]
*46 wbs_adr_i[21]
*47 wbs_adr_i[22]
*48 wbs_adr_i[23]
*49 wbs_adr_i[24]
*50 wbs_adr_i[25]
*51 wbs_adr_i[26]
*52 wbs_adr_i[27]
*53 wbs_adr_i[28]
*54 wbs_adr_i[29]
*55 wbs_adr_i[2]
*56 wbs_adr_i[30]
*57 wbs_adr_i[31]
*58 wbs_adr_i[3]
*59 wbs_adr_i[4]
*60 wbs_adr_i[5]
*61 wbs_adr_i[6]
*62 wbs_adr_i[7]
*63 wbs_adr_i[8]
*64 wbs_adr_i[9]
*65 wbs_cyc_i
*66 wbs_dat_i[0]
*67 wbs_dat_i[10]
*68 wbs_dat_i[11]
*69 wbs_dat_i[12]
*70 wbs_dat_i[13]
*71 wbs_dat_i[14]
*72 wbs_dat_i[15]
*73 wbs_dat_i[16]
*74 wbs_dat_i[17]
*75 wbs_dat_i[18]
*76 wbs_dat_i[19]
*77 wbs_dat_i[1]
*78 wbs_dat_i[20]
*79 wbs_dat_i[21]
*80 wbs_dat_i[22]
*81 wbs_dat_i[23]
*82 wbs_dat_i[24]
*83 wbs_dat_i[25]
*84 wbs_dat_i[26]
*85 wbs_dat_i[27]
*86 wbs_dat_i[28]
*87 wbs_dat_i[29]
*88 wbs_dat_i[2]
*89 wbs_dat_i[30]
*90 wbs_dat_i[31]
*91 wbs_dat_i[3]
*92 wbs_dat_i[4]
*93 wbs_dat_i[5]
*94 wbs_dat_i[6]
*95 wbs_dat_i[7]
*96 wbs_dat_i[8]
*97 wbs_dat_i[9]
*98 wbs_dat_o[0]
*99 wbs_dat_o[10]
*100 wbs_dat_o[11]
*101 wbs_dat_o[12]
*102 wbs_dat_o[13]
*103 net227
*104 wbs_dat_o[15]
*105 wbs_dat_o[16]
*106 net226
*107 wbs_dat_o[18]
*108 wbs_dat_o[19]
*109 wbs_dat_o[1]
*110 net225
*111 wbs_dat_o[21]
*112 net224
*113 wbs_dat_o[23]
*114 net223
*115 wbs_dat_o[25]
*116 wbs_dat_o[26]
*117 wbs_dat_o[27]
*118 wbs_dat_o[28]
*119 net222
*120 wbs_dat_o[2]
*121 wbs_dat_o[30]
*122 wbs_dat_o[31]
*123 wbs_dat_o[3]
*124 wbs_dat_o[4]
*125 wbs_dat_o[5]
*126 wbs_dat_o[6]
*127 wbs_dat_o[7]
*128 net228
*129 wbs_dat_o[9]
*130 wbs_sel_i[0]
*131 wbs_sel_i[1]
*132 wbs_sel_i[2]
*133 wbs_sel_i[3]
*134 wbs_stb_i
*135 wbs_we_i
*136 _0000_
*137 _0001_
*138 _0002_
*139 _0003_
*140 _0004_
*141 _0005_
*142 _0020_
*143 _0029_
*144 _0030_
*145 _0031_
*146 _0032_
*147 _0033_
*148 _0034_
*149 _0035_
*150 _0036_
*151 _0037_
*152 _0038_
*153 _0039_
*154 _0040_
*155 _0041_
*156 _0042_
*157 _0043_
*158 _0044_
*159 _0045_
*160 _0046_
*161 _0047_
*162 _0048_
*163 _0049_
*164 _0050_
*165 _0051_
*166 _0052_
*167 _0053_
*168 _0054_
*169 _0055_
*170 _0056_
*171 _0057_
*172 _0058_
*173 _0059_
*174 _0060_
*175 _0061_
*176 _0062_
*177 _0063_
*178 _0064_
*179 _0065_
*180 _0066_
*181 _0067_
*182 _0068_
*183 _0069_
*184 _0070_
*185 _0071_
*186 _0072_
*187 _0073_
*188 _0074_
*189 _0075_
*190 _0076_
*191 _0077_
*192 _0078_
*193 _0079_
*194 _0080_
*195 _0081_
*196 _0082_
*197 _0083_
*198 _0084_
*199 _0085_
*200 _0086_
*201 _0087_
*202 _0088_
*203 _0089_
*204 _0090_
*205 _0091_
*206 _0092_
*207 _0093_
*208 _0094_
*209 _0095_
*210 _0096_
*211 _0097_
*212 _0098_
*213 _0099_
*214 _0100_
*215 _0101_
*216 _0102_
*217 _0103_
*218 _0104_
*219 _0105_
*220 _0106_
*221 _0107_
*222 _0108_
*223 _0109_
*224 _0110_
*225 _0111_
*226 _0112_
*227 _0113_
*228 _0114_
*229 _0115_
*230 _0116_
*231 _0117_
*232 _0118_
*233 _0119_
*234 _0120_
*235 _0121_
*236 _0122_
*237 _0123_
*238 _0124_
*239 _0125_
*240 _0126_
*241 _0127_
*242 _0128_
*243 _0129_
*244 _0130_
*245 _0131_
*246 _0132_
*247 _0133_
*248 _0134_
*249 _0135_
*250 _0136_
*251 _0137_
*252 _0138_
*253 _0139_
*254 _0140_
*255 _0141_
*256 _0142_
*257 _0143_
*258 _0144_
*259 _0145_
*260 _0146_
*261 _0147_
*262 _0148_
*263 _0149_
*264 _0150_
*265 _0151_
*266 _0152_
*267 _0153_
*268 _0154_
*269 _0155_
*270 _0156_
*271 _0157_
*272 _0158_
*273 _0159_
*274 _0160_
*275 _0161_
*276 _0162_
*277 _0163_
*278 _0164_
*279 _0165_
*280 _0166_
*281 _0167_
*282 _0168_
*283 _0169_
*284 _0170_
*285 _0171_
*286 _0172_
*287 _0173_
*288 _0174_
*289 _0175_
*290 _0176_
*291 _0177_
*292 _0178_
*293 _0179_
*294 _0180_
*295 _0181_
*296 _0182_
*297 _0183_
*298 _0184_
*299 _0185_
*300 _0186_
*301 _0187_
*302 _0188_
*303 _0189_
*304 _0190_
*305 _0191_
*306 _0192_
*307 _0193_
*308 _0194_
*309 _0195_
*310 _0196_
*311 _0197_
*312 _0198_
*313 _0199_
*314 _0200_
*315 _0201_
*316 _0202_
*317 _0203_
*318 _0204_
*319 _0205_
*320 _0206_
*321 _0207_
*322 _0208_
*323 _0209_
*324 _0210_
*325 _0211_
*326 _0212_
*327 _0213_
*328 _0214_
*329 _0215_
*330 _0216_
*331 _0217_
*332 _0218_
*333 _0219_
*334 _0220_
*335 _0221_
*336 _0222_
*337 _0223_
*338 _0224_
*339 _0225_
*340 _0226_
*341 _0227_
*342 _0228_
*343 _0229_
*344 _0230_
*345 _0231_
*346 _0232_
*347 _0233_
*348 _0234_
*349 _0235_
*350 _0236_
*351 _0237_
*352 _0238_
*353 _0239_
*354 _0240_
*355 _0241_
*356 _0242_
*357 _0243_
*358 _0244_
*359 _0245_
*360 _0246_
*361 _0247_
*362 _0248_
*363 _0249_
*364 _0250_
*365 _0251_
*366 _0252_
*367 _0253_
*368 _0254_
*369 _0255_
*370 _0256_
*371 _0257_
*372 _0258_
*373 _0259_
*374 _0260_
*375 _0261_
*376 _0262_
*377 _0263_
*378 _0264_
*379 _0265_
*380 _0266_
*381 _0267_
*382 _0268_
*383 _0269_
*384 _0270_
*385 _0271_
*386 _0272_
*387 _0273_
*388 _0274_
*389 _0275_
*390 _0276_
*391 _0277_
*392 _0278_
*393 _0279_
*394 _0280_
*395 _0281_
*396 _0282_
*397 _0283_
*398 _0284_
*399 _0285_
*400 _0286_
*401 _0287_
*402 _0288_
*403 _0289_
*404 _0290_
*405 _0291_
*406 _0292_
*407 _0293_
*408 _0294_
*409 _0295_
*410 _0296_
*411 _0297_
*412 _0298_
*413 _0299_
*414 _0300_
*415 _0301_
*416 _0302_
*417 _0303_
*418 _0304_
*419 _0305_
*420 _0306_
*421 _0307_
*422 _0308_
*423 _0309_
*424 _0310_
*425 _0311_
*426 _0312_
*427 _0313_
*428 _0314_
*429 _0315_
*430 _0316_
*431 _0317_
*432 _0318_
*433 _0319_
*434 _0320_
*435 _0321_
*436 _0322_
*437 _0323_
*438 _0324_
*439 _0325_
*440 _0326_
*441 _0327_
*442 _0328_
*443 _0329_
*444 _0330_
*445 _0331_
*446 _0332_
*447 _0333_
*448 _0334_
*449 _0335_
*450 _0336_
*451 _0337_
*452 _0338_
*453 _0339_
*454 _0340_
*455 _0341_
*456 _0342_
*457 _0343_
*458 _0344_
*459 _0345_
*460 _0346_
*461 _0347_
*462 _0348_
*463 _0349_
*464 _0350_
*465 _0351_
*466 _0352_
*467 _0353_
*468 _0354_
*469 _0355_
*470 _0356_
*471 _0357_
*472 _0358_
*473 _0359_
*474 _0360_
*475 _0361_
*476 _0362_
*477 _0363_
*478 _0364_
*479 _0365_
*480 _0366_
*481 _0367_
*482 _0368_
*483 _0369_
*484 _0370_
*485 _0371_
*486 _0372_
*487 _0373_
*488 _0374_
*489 _0375_
*490 _0376_
*491 _0377_
*492 _0378_
*493 _0379_
*494 _0380_
*495 _0381_
*496 _0382_
*497 _0383_
*498 _0384_
*499 _0385_
*500 _0386_
*501 _0387_
*502 _0388_
*503 _0389_
*504 _0390_
*505 _0391_
*506 _0392_
*507 _0393_
*508 _0394_
*509 _0395_
*510 _0396_
*511 _0397_
*512 _0398_
*513 _0399_
*514 _0400_
*515 _0401_
*516 _0402_
*517 _0403_
*518 _0404_
*519 _0405_
*520 _0406_
*521 _0407_
*522 _0408_
*523 _0409_
*524 _0410_
*525 _0411_
*526 _0412_
*527 _0413_
*528 _0414_
*529 _0415_
*530 _0416_
*531 _0417_
*532 _0418_
*533 _0419_
*534 _0420_
*535 _0421_
*536 _0422_
*537 _0423_
*538 _0424_
*539 _0425_
*540 _0426_
*541 _0427_
*542 _0428_
*543 _0429_
*544 _0430_
*545 _0431_
*546 _0432_
*547 _0433_
*548 _0434_
*549 _0435_
*550 _0436_
*551 _0437_
*552 _0438_
*553 _0439_
*554 _0440_
*555 _0441_
*556 _0442_
*557 _0443_
*558 _0444_
*559 _0445_
*560 _0446_
*561 _0447_
*562 _0448_
*563 _0449_
*564 _0450_
*565 _0451_
*566 _0452_
*567 _0453_
*568 _0454_
*569 _0455_
*570 _0456_
*571 _0457_
*572 _0458_
*573 _0459_
*574 _0460_
*575 _0461_
*576 _0462_
*577 _0463_
*578 _0464_
*579 _0465_
*580 _0466_
*581 _0467_
*582 _0468_
*583 _0469_
*584 _0470_
*585 _0471_
*586 _0472_
*587 _0473_
*588 _0474_
*589 _0475_
*590 _0476_
*591 _0477_
*592 _0478_
*593 _0479_
*594 _0480_
*595 _0481_
*596 _0482_
*597 _0483_
*598 _0484_
*599 _0485_
*600 _0486_
*601 _0487_
*602 _0488_
*603 _0489_
*604 _0490_
*605 _0491_
*606 _0492_
*607 _0493_
*608 _0494_
*609 _0495_
*610 _0496_
*611 _0497_
*612 _0498_
*613 _0499_
*614 _0500_
*615 _0501_
*616 _0502_
*617 _0503_
*618 _0504_
*619 _0505_
*620 _0506_
*621 _0507_
*622 _0508_
*623 _0509_
*624 _0510_
*625 _0511_
*626 _0512_
*627 _0513_
*628 _0514_
*629 _0515_
*630 _0516_
*631 _0517_
*632 _0518_
*633 _0519_
*634 _0520_
*635 _0521_
*636 _0522_
*637 _0523_
*638 _0524_
*639 _0525_
*640 _0526_
*641 _0527_
*642 _0528_
*643 _0529_
*644 _0530_
*645 _0531_
*646 _0532_
*647 _0533_
*648 _0534_
*649 _0535_
*650 _0536_
*651 _0537_
*652 _0538_
*653 _0539_
*654 _0540_
*655 _0541_
*656 _0542_
*657 _0543_
*658 _0544_
*659 _0545_
*660 _0546_
*661 _0547_
*662 _0548_
*663 _0549_
*664 _0550_
*665 _0551_
*666 _0552_
*667 _0553_
*668 _0554_
*669 _0555_
*670 _0556_
*671 _0557_
*672 _0558_
*673 _0559_
*674 _0560_
*675 _0561_
*676 _0562_
*677 _0563_
*678 _0564_
*679 _0565_
*680 _0566_
*681 _0567_
*682 _0568_
*683 _0569_
*684 _0570_
*685 _0571_
*686 _0572_
*687 _0573_
*688 _0574_
*689 _0575_
*690 _0576_
*691 _0577_
*692 _0578_
*693 _0579_
*694 _0580_
*695 _0581_
*696 _0582_
*697 _0583_
*698 _0584_
*699 _0585_
*700 _0586_
*701 _0587_
*702 _0588_
*703 _0589_
*704 _0590_
*705 _0591_
*706 _0592_
*707 _0593_
*708 _0594_
*709 _0595_
*710 _0596_
*711 _0597_
*712 _0598_
*713 _0599_
*714 _0600_
*715 _0601_
*716 _0602_
*717 _0603_
*718 _0604_
*719 _0605_
*720 _0606_
*721 _0607_
*722 _0608_
*723 _0609_
*724 _0610_
*725 _0611_
*726 _0612_
*727 _0613_
*728 _0614_
*729 _0615_
*730 _0616_
*731 _0617_
*732 _0618_
*733 _0619_
*734 _0620_
*735 _0621_
*736 _0622_
*737 _0623_
*738 _0624_
*739 _0625_
*740 _0626_
*741 _0627_
*742 _0628_
*743 _0629_
*744 _0630_
*745 _0631_
*746 _0632_
*747 _0633_
*748 _0634_
*749 _0635_
*750 _0636_
*751 _0637_
*752 _0638_
*753 _0639_
*754 _0640_
*755 _0641_
*756 _0642_
*757 _0643_
*758 _0644_
*759 _0645_
*760 _0646_
*761 _0647_
*762 _0648_
*763 _0649_
*764 _0650_
*765 _0651_
*766 _0652_
*767 _0653_
*768 _0654_
*769 _0655_
*770 _0656_
*771 _0657_
*772 _0658_
*773 _0659_
*774 _0660_
*775 _0661_
*776 _0662_
*777 _0663_
*778 _0664_
*779 _0665_
*780 _0666_
*781 _0667_
*782 _0668_
*783 _0669_
*784 _0670_
*785 _0671_
*786 _0672_
*787 _0673_
*788 _0674_
*789 _0675_
*790 _0676_
*791 _0677_
*792 _0678_
*793 _0679_
*794 _0680_
*795 _0681_
*796 _0682_
*797 _0683_
*798 _0684_
*799 _0685_
*800 _0686_
*801 _0687_
*802 _0688_
*803 _0689_
*804 _0690_
*805 _0691_
*806 _0692_
*807 _0693_
*808 _0694_
*809 _0695_
*810 _0696_
*811 _0697_
*812 _0698_
*813 _0699_
*814 _0700_
*815 _0701_
*816 _0702_
*817 _0703_
*818 _0704_
*819 _0705_
*820 _0706_
*821 _0707_
*822 _0708_
*823 _0709_
*824 _0710_
*825 _0711_
*826 _0712_
*827 _0713_
*828 _0714_
*829 _0715_
*830 _0716_
*831 _0717_
*832 _0718_
*833 _0719_
*834 _0720_
*835 _0721_
*836 _0722_
*837 _0723_
*838 _0724_
*839 _0725_
*840 _0726_
*841 _0727_
*842 _0728_
*843 _0729_
*844 _0730_
*845 _0731_
*846 _0732_
*847 _0733_
*848 _0734_
*849 _0735_
*850 _0736_
*851 _0737_
*852 _0738_
*853 _0739_
*854 _0740_
*855 _0741_
*856 _0742_
*857 _0743_
*858 _0744_
*859 _0745_
*860 _0746_
*861 _0747_
*862 _0748_
*863 _0749_
*864 _0750_
*865 _0751_
*866 _0752_
*867 _0753_
*868 _0754_
*869 _0755_
*870 _0756_
*871 _0757_
*872 _0758_
*873 _0759_
*874 _0760_
*875 _0761_
*876 _0762_
*877 _0763_
*878 _0764_
*879 _0765_
*880 _0766_
*881 _0767_
*882 _0768_
*883 _0769_
*884 _0770_
*885 _0771_
*886 _0772_
*887 _0773_
*888 _0774_
*889 _0775_
*890 _0776_
*891 _0777_
*892 _0778_
*893 _0779_
*894 _0780_
*895 _0781_
*896 _0782_
*897 _0783_
*898 _0784_
*899 _0785_
*900 _0786_
*901 _0787_
*902 _0788_
*903 _0789_
*904 _0790_
*905 _0791_
*906 _0792_
*907 _0793_
*908 _0794_
*909 _0795_
*910 _0796_
*911 _0797_
*912 _0798_
*913 _0799_
*914 _0800_
*915 _0801_
*916 _0802_
*917 _0803_
*918 _0804_
*919 _0805_
*920 _0806_
*921 _0807_
*922 _0808_
*923 _0809_
*924 _0810_
*925 _0811_
*926 _0812_
*927 _0813_
*928 _0814_
*929 _0815_
*930 _0816_
*931 _0817_
*932 _0818_
*933 _0819_
*934 _0820_
*935 _0821_
*936 _0822_
*937 _0823_
*938 _0824_
*939 _0825_
*940 _0826_
*941 _0827_
*942 _0828_
*943 _0829_
*944 _0830_
*945 _0831_
*946 _0832_
*947 _0833_
*948 _0834_
*949 _0835_
*950 _0836_
*951 _0837_
*952 _0838_
*953 _0839_
*954 _0840_
*955 _0841_
*956 _0842_
*957 _0843_
*958 _0844_
*959 _0845_
*960 _0846_
*961 _0847_
*962 _0848_
*963 _0849_
*964 _0850_
*965 _0851_
*966 _0852_
*967 _0853_
*968 _0854_
*969 _0855_
*970 _0856_
*971 _0857_
*972 _0858_
*973 _0859_
*974 _0860_
*975 _0861_
*976 _0862_
*977 _0863_
*978 _0864_
*979 _0865_
*980 _0866_
*981 _0867_
*982 _0868_
*983 _0869_
*984 _0870_
*985 _0871_
*986 _0872_
*987 _0873_
*988 _0874_
*989 _0875_
*990 _0876_
*991 _0877_
*992 _0878_
*993 _0879_
*994 _0880_
*995 _0881_
*996 _0882_
*997 _0883_
*998 _0884_
*999 _0885_
*1000 _0886_
*1001 _0887_
*1002 _0888_
*1003 _0889_
*1004 _0890_
*1005 _0891_
*1006 _0892_
*1007 _0893_
*1008 _0894_
*1009 _0895_
*1010 _0896_
*1011 _0897_
*1012 _0898_
*1013 _0899_
*1014 _0900_
*1015 _0901_
*1016 _0902_
*1017 _0903_
*1018 _0904_
*1019 _0905_
*1020 _0906_
*1021 _0907_
*1022 _0908_
*1023 _0909_
*1024 _0910_
*1025 _0911_
*1026 _0912_
*1027 _0913_
*1028 _0914_
*1029 _0915_
*1030 _0916_
*1031 _0917_
*1032 _0918_
*1033 _0919_
*1034 _0920_
*1035 _0921_
*1036 _0922_
*1037 _0923_
*1038 _0924_
*1039 _0925_
*1040 _0926_
*1041 _0927_
*1042 _0928_
*1043 _0929_
*1044 _0930_
*1045 _0931_
*1046 _0932_
*1047 _0933_
*1048 _0934_
*1049 _0935_
*1050 _0936_
*1051 _0937_
*1052 _0938_
*1053 _0939_
*1054 _0940_
*1055 _0941_
*1056 _0942_
*1057 _0943_
*1058 _0944_
*1059 _0945_
*1060 _0946_
*1061 _0947_
*1062 _0948_
*1063 _0949_
*1064 _0950_
*1065 _0951_
*1066 _0952_
*1067 _0953_
*1068 _0954_
*1069 _0955_
*1070 _0956_
*1071 _0957_
*1072 _0958_
*1073 _0959_
*1074 _0960_
*1075 _0961_
*1076 _0962_
*1077 _0963_
*1078 _0964_
*1079 _0965_
*1080 _0966_
*1081 _0967_
*1082 _0968_
*1083 _0969_
*1084 _0970_
*1085 _0971_
*1086 _0972_
*1087 _0973_
*1088 _0974_
*1089 _0975_
*1090 _0976_
*1091 _0977_
*1092 _0978_
*1093 _0979_
*1094 _0980_
*1095 _0981_
*1096 _0982_
*1097 _0983_
*1098 _0984_
*1099 _0985_
*1100 _0986_
*1101 _0987_
*1102 _0988_
*1103 _0989_
*1104 _0990_
*1105 _0991_
*1106 _0992_
*1107 _0993_
*1108 _0994_
*1109 _0995_
*1110 _0996_
*1111 _0997_
*1112 _0998_
*1113 _0999_
*1114 _1000_
*1115 _1001_
*1116 _1002_
*1117 _1003_
*1118 _1004_
*1119 _1005_
*1120 _1006_
*1121 _1007_
*1122 _1008_
*1123 _1009_
*1124 _1010_
*1125 _1011_
*1126 _1012_
*1127 _1013_
*1128 _1014_
*1129 _1015_
*1130 _1016_
*1131 _1017_
*1132 _1018_
*1133 _1019_
*1134 _1020_
*1135 _1021_
*1136 _1022_
*1137 _1023_
*1138 _1024_
*1139 _1025_
*1140 _1026_
*1141 _1027_
*1142 _1028_
*1143 _1029_
*1144 _1030_
*1145 _1031_
*1146 _1032_
*1147 _1033_
*1148 _1034_
*1149 _1035_
*1150 _1036_
*1151 _1037_
*1152 _1038_
*1153 _1039_
*1154 _1040_
*1155 _1041_
*1156 _1042_
*1157 _1043_
*1158 _1044_
*1159 _1045_
*1160 _1046_
*1161 _1047_
*1162 _1048_
*1163 _1049_
*1164 _1050_
*1165 _1051_
*1166 _1052_
*1167 _1053_
*1168 _1054_
*1169 _1055_
*1170 _1056_
*1171 _1057_
*1172 _1058_
*1173 _1059_
*1174 _1060_
*1175 _1061_
*1176 _1062_
*1177 _1063_
*1178 _1064_
*1179 _1065_
*1180 _1066_
*1181 _1067_
*1182 _1068_
*1183 _1069_
*1184 _1070_
*1185 _1071_
*1186 _1072_
*1187 _1073_
*1188 _1074_
*1189 _1075_
*1190 _1076_
*1191 _1077_
*1192 _1078_
*1193 _1079_
*1194 _1080_
*1195 _1081_
*1196 _1082_
*1197 _1083_
*1198 _1084_
*1199 _1085_
*1200 _1086_
*1201 _1087_
*1202 _1088_
*1203 _1089_
*1204 _1090_
*1205 _1091_
*1206 _1092_
*1207 _1093_
*1208 _1094_
*1209 _1095_
*1210 _1096_
*1211 _1097_
*1212 _1098_
*1213 _1099_
*1214 _1100_
*1215 _1101_
*1216 _1102_
*1217 _1103_
*1218 _1104_
*1219 _1105_
*1220 _1106_
*1221 _1107_
*1222 _1108_
*1223 _1109_
*1224 _1110_
*1225 _1111_
*1226 _1112_
*1227 _1113_
*1228 _1114_
*1229 _1115_
*1230 _1116_
*1231 _1117_
*1232 _1118_
*1233 _1119_
*1234 _1120_
*1235 _1121_
*1236 _1122_
*1237 _1123_
*1238 _1124_
*1239 _1125_
*1240 _1126_
*1241 _1127_
*1242 _1128_
*1243 _1129_
*1244 _1130_
*1245 _1131_
*1246 _1132_
*1247 _1133_
*1248 _1134_
*1249 _1135_
*1250 _1136_
*1251 _1137_
*1252 _1138_
*1253 _1139_
*1254 _1140_
*1255 _1141_
*1256 _1142_
*1257 _1143_
*1258 _1144_
*1259 _1145_
*1260 _1146_
*1261 _1147_
*1262 _1148_
*1263 clknet_0_wb_clk_i
*1264 clknet_2_0__leaf_wb_clk_i
*1265 clknet_2_1__leaf_wb_clk_i
*1266 clknet_2_2__leaf_wb_clk_i
*1267 clknet_2_3__leaf_wb_clk_i
*1268 clknet_leaf_0_wb_clk_i
*1269 clknet_leaf_10_wb_clk_i
*1270 clknet_leaf_11_wb_clk_i
*1271 clknet_leaf_12_wb_clk_i
*1272 clknet_leaf_13_wb_clk_i
*1273 clknet_leaf_14_wb_clk_i
*1274 clknet_leaf_15_wb_clk_i
*1275 clknet_leaf_16_wb_clk_i
*1276 clknet_leaf_17_wb_clk_i
*1277 clknet_leaf_18_wb_clk_i
*1278 clknet_leaf_19_wb_clk_i
*1279 clknet_leaf_1_wb_clk_i
*1280 clknet_leaf_20_wb_clk_i
*1281 clknet_leaf_21_wb_clk_i
*1282 clknet_leaf_22_wb_clk_i
*1283 clknet_leaf_23_wb_clk_i
*1284 clknet_leaf_24_wb_clk_i
*1285 clknet_leaf_25_wb_clk_i
*1286 clknet_leaf_26_wb_clk_i
*1287 clknet_leaf_27_wb_clk_i
*1288 clknet_leaf_28_wb_clk_i
*1289 clknet_leaf_29_wb_clk_i
*1290 clknet_leaf_2_wb_clk_i
*1291 clknet_leaf_30_wb_clk_i
*1292 clknet_leaf_31_wb_clk_i
*1293 clknet_leaf_32_wb_clk_i
*1294 clknet_leaf_33_wb_clk_i
*1295 clknet_leaf_34_wb_clk_i
*1296 clknet_leaf_35_wb_clk_i
*1297 clknet_leaf_36_wb_clk_i
*1298 clknet_leaf_37_wb_clk_i
*1299 clknet_leaf_38_wb_clk_i
*1300 clknet_leaf_39_wb_clk_i
*1301 clknet_leaf_3_wb_clk_i
*1302 clknet_leaf_40_wb_clk_i
*1303 clknet_leaf_41_wb_clk_i
*1304 clknet_leaf_42_wb_clk_i
*1305 clknet_leaf_43_wb_clk_i
*1306 clknet_leaf_44_wb_clk_i
*1307 clknet_leaf_45_wb_clk_i
*1308 clknet_leaf_46_wb_clk_i
*1309 clknet_leaf_47_wb_clk_i
*1310 clknet_leaf_48_wb_clk_i
*1311 clknet_leaf_49_wb_clk_i
*1312 clknet_leaf_4_wb_clk_i
*1313 clknet_leaf_50_wb_clk_i
*1314 clknet_leaf_5_wb_clk_i
*1315 clknet_leaf_6_wb_clk_i
*1316 clknet_leaf_7_wb_clk_i
*1317 clknet_leaf_8_wb_clk_i
*1318 clknet_leaf_9_wb_clk_i
*1319 gpio_ack
*1320 gpio_inst\.DATAO_REG\[0\]
*1321 gpio_inst\.DATAO_REG\[1\]
*1322 gpio_inst\.DIR_REG\[0\]
*1323 gpio_inst\.DIR_REG\[1\]
*1324 gpio_inst\.IC_REG\[0\]
*1325 gpio_inst\.IC_REG\[10\]
*1326 gpio_inst\.IC_REG\[11\]
*1327 gpio_inst\.IC_REG\[12\]
*1328 gpio_inst\.IC_REG\[13\]
*1329 gpio_inst\.IC_REG\[14\]
*1330 gpio_inst\.IC_REG\[15\]
*1331 gpio_inst\.IC_REG\[16\]
*1332 gpio_inst\.IC_REG\[17\]
*1333 gpio_inst\.IC_REG\[1\]
*1334 gpio_inst\.IC_REG\[24\]
*1335 gpio_inst\.IC_REG\[25\]
*1336 gpio_inst\.IC_REG\[8\]
*1337 gpio_inst\.IC_REG\[9\]
*1338 gpio_inst\.IM_REG\[0\]
*1339 gpio_inst\.IM_REG\[10\]
*1340 gpio_inst\.IM_REG\[11\]
*1341 gpio_inst\.IM_REG\[12\]
*1342 gpio_inst\.IM_REG\[13\]
*1343 gpio_inst\.IM_REG\[14\]
*1344 gpio_inst\.IM_REG\[15\]
*1345 gpio_inst\.IM_REG\[16\]
*1346 gpio_inst\.IM_REG\[17\]
*1347 gpio_inst\.IM_REG\[1\]
*1348 gpio_inst\.IM_REG\[24\]
*1349 gpio_inst\.IM_REG\[25\]
*1350 gpio_inst\.IM_REG\[8\]
*1351 gpio_inst\.IM_REG\[9\]
*1352 gpio_inst\.IRQ
*1353 gpio_inst\.P0HI
*1354 gpio_inst\.P1HI
*1355 gpio_inst\.RIS_REG\[0\]
*1356 gpio_inst\.RIS_REG\[10\]
*1357 gpio_inst\.RIS_REG\[11\]
*1358 gpio_inst\.RIS_REG\[12\]
*1359 gpio_inst\.RIS_REG\[13\]
*1360 gpio_inst\.RIS_REG\[14\]
*1361 gpio_inst\.RIS_REG\[15\]
*1362 gpio_inst\.RIS_REG\[16\]
*1363 gpio_inst\.RIS_REG\[17\]
*1364 gpio_inst\.RIS_REG\[1\]
*1365 gpio_inst\.RIS_REG\[24\]
*1366 gpio_inst\.RIS_REG\[25\]
*1367 gpio_inst\.RIS_REG\[8\]
*1368 gpio_inst\.RIS_REG\[9\]
*1369 gpio_inst\.instance_to_wrap\.ned_0\.last_in
*1370 gpio_inst\.instance_to_wrap\.ned_1\.last_in
*1371 gpio_inst\.instance_to_wrap\.synchronizer\[0\]\.sync\[0\]
*1372 gpio_inst\.instance_to_wrap\.synchronizer\[1\]\.sync\[0\]
*1373 net1
*1374 net10
*1375 net100
*1376 net101
*1377 net102
*1378 net103
*1379 net104
*1380 net105
*1381 net106
*1382 net107
*1383 net108
*1384 net109
*1385 net11
*1386 net110
*1387 net111
*1388 net112
*1389 net113
*1390 net114
*1391 net115
*1392 net116
*1393 net117
*1394 net118
*1395 net119
*1396 net12
*1397 net120
*1398 net121
*1399 net122
*1400 net123
*1401 net124
*1402 net125
*1403 net126
*1404 net127
*1405 net128
*1406 net129
*1407 net13
*1408 net130
*1409 net131
*1410 net132
*1411 net133
*1412 net134
*1413 net135
*1414 net136
*1415 net137
*1416 net138
*1417 net139
*1418 net14
*1419 net140
*1420 net141
*1421 net142
*1422 net143
*1423 net144
*1424 net145
*1425 net146
*1426 net147
*1427 net148
*1428 net149
*1429 net15
*1430 net150
*1431 net151
*1432 net152
*1433 net153
*1434 net154
*1435 net155
*1436 net156
*1437 net157
*1438 net158
*1439 net159
*1440 net16
*1441 net160
*1442 net161
*1443 net162
*1444 net163
*1445 net164
*1446 net165
*1447 net166
*1448 net167
*1449 net168
*1450 net169
*1451 net17
*1452 net170
*1453 net171
*1454 net172
*1455 net173
*1456 net174
*1457 net175
*1458 net176
*1459 net177
*1460 net178
*1461 net179
*1462 net18
*1463 net180
*1464 net181
*1465 net182
*1466 net183
*1467 net184
*1468 net185
*1469 net186
*1470 net187
*1471 net188
*1472 net189
*1473 net19
*1474 net190
*1475 net191
*1476 net192
*1477 net2
*1478 net20
*1479 net200
*1480 net201
*1481 net202
*1482 net203
*1483 net204
*1484 net205
*1485 net206
*1486 net207
*1487 net208
*1488 net209
*1489 net21
*1490 net210
*1491 net211
*1492 net212
*1493 net213
*1494 net214
*1495 net215
*1496 net216
*1497 net217
*1498 net218
*1499 net219
*1500 net22
*1501 net220
*1502 net221
*1503 net23
*1504 net231
*1505 net232
*1506 net233
*1507 net234
*1508 net235
*1509 net236
*1510 net237
*1511 net238
*1512 net239
*1513 net24
*1514 net240
*1515 net241
*1516 net242
*1517 net243
*1518 net244
*1519 net245
*1520 net246
*1521 net247
*1522 net248
*1523 net249
*1524 net25
*1525 net250
*1526 net251
*1527 net252
*1528 net253
*1529 net254
*1530 net255
*1531 net256
*1532 net257
*1533 net258
*1534 net259
*1535 net26
*1536 net260
*1537 net261
*1538 net262
*1539 net263
*1540 net264
*1541 net265
*1542 net266
*1543 net267
*1544 net268
*1545 net269
*1546 net27
*1547 net270
*1548 net271
*1549 net272
*1550 net273
*1551 net274
*1552 net275
*1553 net276
*1554 net277
*1555 net278
*1556 net279
*1557 net28
*1558 net280
*1559 net281
*1560 net282
*1561 net283
*1562 net284
*1563 net285
*1564 net286
*1565 net287
*1566 net288
*1567 net289
*1568 net29
*1569 net290
*1570 net291
*1571 net292
*1572 net293
*1573 net294
*1574 net295
*1575 net296
*1576 net297
*1577 net298
*1578 net299
*1579 net3
*1580 net30
*1581 net300
*1582 net301
*1583 net302
*1584 net303
*1585 net304
*1586 net305
*1587 net306
*1588 net307
*1589 net308
*1590 net309
*1591 net31
*1592 net310
*1593 net311
*1594 net312
*1595 net313
*1596 net314
*1597 net315
*1598 net316
*1599 net317
*1600 net318
*1601 net319
*1602 net32
*1603 net320
*1604 net321
*1605 net322
*1606 net323
*1607 net324
*1608 net325
*1609 net326
*1610 net327
*1611 net328
*1612 net329
*1613 net33
*1614 net330
*1615 net331
*1616 net332
*1617 net333
*1618 net334
*1619 net335
*1620 net336
*1621 net337
*1622 net338
*1623 net339
*1624 net34
*1625 net340
*1626 net341
*1627 net342
*1628 net343
*1629 net344
*1630 net345
*1631 net346
*1632 net347
*1633 net348
*1634 net349
*1635 net35
*1636 net350
*1637 net351
*1638 net352
*1639 net353
*1640 net354
*1641 net355
*1642 net356
*1643 net357
*1644 net358
*1645 net359
*1646 net36
*1647 net360
*1648 net361
*1649 net362
*1650 net363
*1651 net364
*1652 net365
*1653 net366
*1654 net367
*1655 net368
*1656 net369
*1657 net37
*1658 net370
*1659 net371
*1660 net372
*1661 net373
*1662 net374
*1663 net375
*1664 net376
*1665 net377
*1666 net378
*1667 net379
*1668 net38
*1669 net380
*1670 net381
*1671 net382
*1672 net383
*1673 net384
*1674 net385
*1675 net386
*1676 net387
*1677 net388
*1678 net389
*1679 net39
*1680 net390
*1681 net391
*1682 net392
*1683 net393
*1684 net394
*1685 net395
*1686 net396
*1687 net397
*1688 net398
*1689 net399
*1690 net4
*1691 net40
*1692 net400
*1693 net401
*1694 net402
*1695 net403
*1696 net404
*1697 net405
*1698 net406
*1699 net407
*1700 net408
*1701 net409
*1702 net41
*1703 net410
*1704 net411
*1705 net412
*1706 net413
*1707 net414
*1708 net415
*1709 net416
*1710 net417
*1711 net418
*1712 net419
*1713 net42
*1714 net420
*1715 net421
*1716 net422
*1717 net423
*1718 net424
*1719 net425
*1720 net426
*1721 net427
*1722 net428
*1723 net429
*1724 net43
*1725 net430
*1726 net431
*1727 net432
*1728 net433
*1729 net434
*1730 net435
*1731 net436
*1732 net437
*1733 net438
*1734 net439
*1735 net44
*1736 net440
*1737 net441
*1738 net442
*1739 net443
*1740 net444
*1741 net445
*1742 net446
*1743 net447
*1744 net448
*1745 net449
*1746 net45
*1747 net450
*1748 net451
*1749 net452
*1750 net453
*1751 net454
*1752 net455
*1753 net456
*1754 net457
*1755 net458
*1756 net459
*1757 net46
*1758 net460
*1759 net461
*1760 net462
*1761 net463
*1762 net464
*1763 net465
*1764 net466
*1765 net467
*1766 net468
*1767 net469
*1768 net47
*1769 net470
*1770 net471
*1771 net472
*1772 net473
*1773 net474
*1774 net475
*1775 net476
*1776 net477
*1777 net478
*1778 net479
*1779 net48
*1780 net480
*1781 net481
*1782 net482
*1783 net483
*1784 net484
*1785 net485
*1786 net486
*1787 net487
*1788 net488
*1789 net489
*1790 net49
*1791 net490
*1792 net491
*1793 net492
*1794 net493
*1795 net494
*1796 net495
*1797 net496
*1798 net497
*1799 net498
*1800 net499
*1801 net5
*1802 net50
*1803 net500
*1804 net501
*1805 net502
*1806 net503
*1807 net504
*1808 net505
*1809 net506
*1810 net507
*1811 net508
*1812 net509
*1813 net51
*1814 net510
*1815 net511
*1816 net512
*1817 net513
*1818 net514
*1819 net515
*1820 net516
*1821 net517
*1822 net518
*1823 net519
*1824 net52
*1825 net520
*1826 net521
*1827 net522
*1828 net523
*1829 net524
*1830 net525
*1831 net526
*1832 net527
*1833 net528
*1834 net529
*1835 net53
*1836 net530
*1837 net531
*1838 net532
*1839 net533
*1840 net534
*1841 net535
*1842 net536
*1843 net537
*1844 net538
*1845 net539
*1846 net54
*1847 net540
*1848 net541
*1849 net542
*1850 net543
*1851 net544
*1852 net545
*1853 net546
*1854 net547
*1855 net548
*1856 net549
*1857 net55
*1858 net550
*1859 net551
*1860 net552
*1861 net553
*1862 net554
*1863 net555
*1864 net556
*1865 net557
*1866 net558
*1867 net559
*1868 net56
*1869 net560
*1870 net561
*1871 net562
*1872 net563
*1873 net564
*1874 net565
*1875 net566
*1876 net567
*1877 net568
*1878 net569
*1879 net57
*1880 net570
*1881 net571
*1882 net572
*1883 net573
*1884 net574
*1885 net575
*1886 net576
*1887 net577
*1888 net578
*1889 net579
*1890 net58
*1891 net580
*1892 net59
*1893 net6
*1894 net60
*1895 net61
*1896 net62
*1897 net63
*1898 net64
*1899 net65
*1900 net66
*1901 net67
*1902 net68
*1903 net69
*1904 net7
*1905 net70
*1906 net71
*1907 net72
*1908 net73
*1909 net74
*1910 net75
*1911 net76
*1912 net77
*1913 net78
*1914 net79
*1915 net8
*1916 net80
*1917 net81
*1918 net82
*1919 net83
*1920 net84
*1921 net85
*1922 net86
*1923 net87
*1924 net88
*1925 net89
*1926 net9
*1927 net90
*1928 net91
*1929 net92
*1930 net93
*1931 net94
*1932 net95
*1933 net96
*1934 net97
*1935 net98
*1936 net99
*1937 spi0_ack
*1938 spi0_csb
*1939 spi0_inst\.CPHA
*1940 spi0_inst\.CPOL
*1941 spi0_inst\.IC_REG\[0\]
*1942 spi0_inst\.IC_REG\[1\]
*1943 spi0_inst\.IC_REG\[2\]
*1944 spi0_inst\.IC_REG\[3\]
*1945 spi0_inst\.IC_REG\[4\]
*1946 spi0_inst\.IC_REG\[5\]
*1947 spi0_inst\.IM_REG\[0\]
*1948 spi0_inst\.IM_REG\[1\]
*1949 spi0_inst\.IM_REG\[2\]
*1950 spi0_inst\.IM_REG\[3\]
*1951 spi0_inst\.IM_REG\[4\]
*1952 spi0_inst\.IM_REG\[5\]
*1953 spi0_inst\.IRQ
*1954 spi0_inst\.PR_REG\[0\]
*1955 spi0_inst\.PR_REG\[1\]
*1956 spi0_inst\.PR_REG\[2\]
*1957 spi0_inst\.PR_REG\[3\]
*1958 spi0_inst\.PR_REG\[4\]
*1959 spi0_inst\.PR_REG\[5\]
*1960 spi0_inst\.PR_REG\[6\]
*1961 spi0_inst\.PR_REG\[7\]
*1962 spi0_inst\.RIS_REG\[0\]
*1963 spi0_inst\.RIS_REG\[1\]
*1964 spi0_inst\.RIS_REG\[2\]
*1965 spi0_inst\.RIS_REG\[3\]
*1966 spi0_inst\.RIS_REG\[4\]
*1967 spi0_inst\.RIS_REG\[5\]
*1968 spi0_inst\.RXE
*1969 spi0_inst\.RXF
*1970 spi0_inst\.RX_FIFO_FLUSH_REG
*1971 spi0_inst\.RX_FIFO_LEVEL_WIRE\[0\]
*1972 spi0_inst\.RX_FIFO_LEVEL_WIRE\[1\]
*1973 spi0_inst\.RX_FIFO_LEVEL_WIRE\[2\]
*1974 spi0_inst\.RX_FIFO_LEVEL_WIRE\[3\]
*1975 spi0_inst\.RX_FIFO_THRESHOLD_REG\[0\]
*1976 spi0_inst\.RX_FIFO_THRESHOLD_REG\[1\]
*1977 spi0_inst\.RX_FIFO_THRESHOLD_REG\[2\]
*1978 spi0_inst\.RX_FIFO_THRESHOLD_REG\[3\]
*1979 spi0_inst\.TXE
*1980 spi0_inst\.TXF
*1981 spi0_inst\.TX_FIFO_FLUSH_REG
*1982 spi0_inst\.TX_FIFO_LEVEL_WIRE\[0\]
*1983 spi0_inst\.TX_FIFO_LEVEL_WIRE\[1\]
*1984 spi0_inst\.TX_FIFO_LEVEL_WIRE\[2\]
*1985 spi0_inst\.TX_FIFO_LEVEL_WIRE\[3\]
*1986 spi0_inst\.TX_FIFO_THRESHOLD_REG\[0\]
*1987 spi0_inst\.TX_FIFO_THRESHOLD_REG\[1\]
*1988 spi0_inst\.TX_FIFO_THRESHOLD_REG\[2\]
*1989 spi0_inst\.TX_FIFO_THRESHOLD_REG\[3\]
*1990 spi0_inst\.busy
*1991 spi0_inst\.done
*1992 spi0_inst\.enable
*1993 spi0_inst\.instance_to_wrap\.done_ed\.last_in
*1994 spi0_inst\.instance_to_wrap\.f_datao\[0\]
*1995 spi0_inst\.instance_to_wrap\.f_datao\[1\]
*1996 spi0_inst\.instance_to_wrap\.f_datao\[2\]
*1997 spi0_inst\.instance_to_wrap\.f_datao\[3\]
*1998 spi0_inst\.instance_to_wrap\.f_datao\[4\]
*1999 spi0_inst\.instance_to_wrap\.f_datao\[5\]
*2000 spi0_inst\.instance_to_wrap\.f_datao\[6\]
*2001 spi0_inst\.instance_to_wrap\.f_datao\[7\]
*2002 spi0_inst\.instance_to_wrap\.mosi
*2003 spi0_inst\.instance_to_wrap\.rx_en
*2004 spi0_inst\.instance_to_wrap\.rx_fifo\.array_reg\[0\]\[0\]
*2005 spi0_inst\.instance_to_wrap\.rx_fifo\.array_reg\[0\]\[1\]
*2006 spi0_inst\.instance_to_wrap\.rx_fifo\.array_reg\[0\]\[2\]
*2007 spi0_inst\.instance_to_wrap\.rx_fifo\.array_reg\[0\]\[3\]
*2008 spi0_inst\.instance_to_wrap\.rx_fifo\.array_reg\[0\]\[4\]
*2009 spi0_inst\.instance_to_wrap\.rx_fifo\.array_reg\[0\]\[5\]
*2010 spi0_inst\.instance_to_wrap\.rx_fifo\.array_reg\[0\]\[6\]
*2011 spi0_inst\.instance_to_wrap\.rx_fifo\.array_reg\[0\]\[7\]
*2012 spi0_inst\.instance_to_wrap\.rx_fifo\.array_reg\[10\]\[0\]
*2013 spi0_inst\.instance_to_wrap\.rx_fifo\.array_reg\[10\]\[1\]
*2014 spi0_inst\.instance_to_wrap\.rx_fifo\.array_reg\[10\]\[2\]
*2015 spi0_inst\.instance_to_wrap\.rx_fifo\.array_reg\[10\]\[3\]